---- qbsp / ericw-tools v0.18.1 ----
Input file: Mystic.map
Output file: Mystic.bsp

---- LoadMapFile ----
         1338 faces
          223 brushes
          398 entities
            4 unique texnames
          106 texinfo

Opened WAD: C:/QuakeDev/wads/prototype_1_2.wad
Processing hull 0...
---- Brush_LoadEntity ----
          223 brushes
          150 planes
---- CSGFaces ----
         1338 brushfaces
         1276 csgfaces
         1145 mergedfaces
---- SolidBSP ----
         1736 split nodes
          673 solid leafs
         1043 empty leafs
           21 water leafs
            0 detail leafs
            0 detail illusionary leafs
            0 detail fence leafs
            0 illusionary visblocker leafs
         2823 leaffaces
         2723 nodefaces
---- Portalize ----
         1064 vis leafs
         1064 vis clusters
         3165 vis portals
---- FillOutside ----
*** WARNING 10: Reached occupant at (-360 -936 248), no filling performed.
Leak file written to Mystic.pts
---- MakeFaceEdges ----
---- GrowRegions ----
Processing hull 1...
*** WARNING 10: Reached occupant at (-360 -936 248), no filling performed.
Processing hull 2...
*** WARNING 10: Reached occupant at (-360 -936 248), no filling performed.
---- WriteBSPFile ----
Wrote Mystic.bsp
          260 planes             5200
         3224 vertexes          38688
         1736 nodes             41664
           76 texinfo            3040
         2723 faces             54460
         3447 clipnodes         27576
         1065 leafs             29820
         2823 marksurfaces       5646
        10892 surfedges         43568
         6927 edges             27708
            4 textures          70900
              lightdata             0
              visdata               0
              entdata           19322

0.505 seconds elapsed
Peak memory usage: 15618250 (14.9M)
