---- qbsp / ericw-tools v0.18.1 ----
Input file: Mystic.map
Output file: Mystic.bsp

---- LoadMapFile ----
         1554 faces
          259 brushes
          668 entities
           12 unique texnames
          477 texinfo

Opened WAD: C:/Users/Owner/Documents/GitHub/QuakeCustomLevel/wads/hipnotic.wad
Processing hull 0...
---- Brush_LoadEntity ----
          259 brushes
          272 planes
---- CSGFaces ----
         1554 brushfaces
         1548 csgfaces
         1473 mergedfaces
---- SolidBSP ----
         1965 split nodes
          767 solid leafs
         1173 empty leafs
           26 water leafs
            0 detail leafs
            0 detail illusionary leafs
            0 detail fence leafs
            0 illusionary visblocker leafs
         3403 leaffaces
         3308 nodefaces
---- Portalize ----
         1199 vis leafs
         1199 vis clusters
         3832 vis portals
---- FillOutside ----
*** WARNING 10: Reached occupant at (-3292 307 464), no filling performed.
Leak file written to Mystic.pts
---- MakeFaceEdges ----
---- GrowRegions ----
Processing hull 1...
*** WARNING 10: Reached occupant at (-3292 307 464), no filling performed.
Processing hull 2...
*** WARNING 10: Reached occupant at (-3292 307 464), no filling performed.
*** WARNING 16: Texture 128_blood_3 not found
---- WriteBSPFile ----
Wrote Mystic.bsp
          603 planes            12060
         3857 vertexes          46284
         1965 nodes             47160
          401 texinfo           16040
         3308 faces             66160
         3917 clipnodes         31336
         1200 leafs             33600
         3403 marksurfaces       6806
        13232 surfedges         52928
         8294 edges             33176
           17 textures          87752
              lightdata             0
              visdata               0
              entdata           41983

0.634 seconds elapsed
Peak memory usage: 18789270 (17.9M)
