---- qbsp / ericw-tools v0.18.1 ----
Input file: TestMap.map
Output file: TestMap.bsp

---- LoadMapFile ----
*** WARNING 06: No info_player_deathmatch entities in level
           60 faces
           10 brushes
           12 entities
            3 unique texnames
           24 texinfo

Opened WAD: C:/QuakeDev/wads/START.WAD
Processing hull 0...
---- Brush_LoadEntity ----
           10 brushes
           23 planes
---- CSGFaces ----
           60 brushfaces
           74 csgfaces
           68 mergedfaces
---- SolidBSP ----
          107 split nodes
           36 solid leafs
           72 empty leafs
            0 water leafs
            0 detail leafs
            0 detail illusionary leafs
            0 detail fence leafs
            0 illusionary visblocker leafs
          222 leaffaces
          214 nodefaces
---- Portalize ----
           72 vis leafs
           72 vis clusters
          147 vis portals
---- FillOutside ----
           60 outleafs
---- MergeAll ----
           42 mergefaces
---- SolidBSP ----
           22 split nodes
           12 solid leafs
           11 empty leafs
            0 water leafs
            0 detail leafs
            0 detail illusionary leafs
            0 detail fence leafs
            0 illusionary visblocker leafs
          114 leaffaces
           82 nodefaces
---- Portalize ----
           11 vis leafs
           11 vis clusters
           14 vis portals
---- Tjunc ----
           74 world edges
          289 edge points
           76 edges added by tjunctions
            0 faces added by tjunctions
---- MakeFaceEdges ----
---- GrowRegions ----
Processing hull 1...
*** WARNING 19: No entities in empty space -- no filling performed (hull 1)
Processing hull 2...
*** WARNING 19: No entities in empty space -- no filling performed (hull 2)
---- WriteBSPFile ----
Wrote TestMap.bsp
           68 planes             1360
          114 vertexes           1368
           22 nodes               528
           10 texinfo             400
           82 faces              1640
          302 clipnodes          2416
           12 leafs               336
          114 marksurfaces        228
          404 surfedges          1616
          203 edges               812
            3 textures          17800
              lightdata             0
              visdata               0
              entdata             830

0.304 seconds elapsed
Peak memory usage: 1049468 (1.0M)
